/*--------------------------------*- C++ -*----------------------------------*\
  =========                 |
  \\      /  F ield         | OpenFOAM: The Open Source CFD Toolbox
   \\    /   O peration     | Website:  https://openfoam.org
    \\  /    A nd           | Version:  13
     \\/     M anipulation  |
\*---------------------------------------------------------------------------*/
FoamFile
{
    format      binary;
    class       polyBoundaryMesh;
    location    "constant/polyMesh";
    object      boundary;
}
// * * * * * * * * * * * * * * * * * * * * * * * * * * * * * * * * * * * * * //

7
(
    front
    {
        type            symmetryPlane;
        inGroups        List<word> 1(symmetryPlane);
        nFaces          930;
        startFace       378333;
    }
    back
    {
        type            symmetryPlane;
        inGroups        List<word> 1(symmetryPlane);
        nFaces          930;
        startFace       379263;
    }
    inlet
    {
        type            patch;
        nFaces          930;
        startFace       380193;
    }
    outlet
    {
        type            patch;
        nFaces          930;
        startFace       381123;
    }
    lowerWall
    {
        type            wall;
        inGroups        List<word> 1(wall);
        nFaces          2259;
        startFace       382053;
    }
    upperWall
    {
        type            symmetryPlane;
        inGroups        List<word> 1(symmetryPlane);
        nFaces          900;
        startFace       384312;
    }
    Bl11
    {
        type            wall;
        inGroups        List<word> 1(wall);
        nFaces          490;
        startFace       385212;
    }
)

// ************************************************************************* //
