/*--------------------------------*- C++ -*----------------------------------*\
  =========                 |
  \\      /  F ield         | OpenFOAM: The Open Source CFD Toolbox
   \\    /   O peration     | Website:  https://openfoam.org
    \\  /    A nd           | Version:  13
     \\/     M anipulation  |
\*---------------------------------------------------------------------------*/
FoamFile
{
    format      binary;
    class       polyBoundaryMesh;
    location    "constant/polyMesh";
    object      boundary;
}
// * * * * * * * * * * * * * * * * * * * * * * * * * * * * * * * * * * * * * //

7
(
    front
    {
        type            symmetryPlane;
        inGroups        List<word> 1(symmetryPlane);
        nFaces          930;
        startFace       147543;
    }
    back
    {
        type            symmetryPlane;
        inGroups        List<word> 1(symmetryPlane);
        nFaces          930;
        startFace       148473;
    }
    inlet
    {
        type            patch;
        nFaces          930;
        startFace       149403;
    }
    outlet
    {
        type            patch;
        nFaces          930;
        startFace       150333;
    }
    lowerWall
    {
        type            wall;
        inGroups        List<word> 1(wall);
        nFaces          1312;
        startFace       151263;
    }
    upperWall
    {
        type            symmetryPlane;
        inGroups        List<word> 1(symmetryPlane);
        nFaces          900;
        startFace       152575;
    }
    Bl11
    {
        type            wall;
        inGroups        List<word> 1(wall);
        nFaces          2696;
        startFace       153475;
    }
)

// ************************************************************************* //
