/*--------------------------------*- C++ -*----------------------------------*\
  =========                 |
  \\      /  F ield         | OpenFOAM: The Open Source CFD Toolbox
   \\    /   O peration     | Website:  https://openfoam.org
    \\  /    A nd           | Version:  13
     \\/     M anipulation  |
\*---------------------------------------------------------------------------*/
FoamFile
{
    format      ascii;
    class       dictionary;
    object      blockMeshDict;
}

// * * * * * * * * * * * * * * * * * * * * * * * * * * * * * * * * * * * * * //

convertToMeters 0.001;


vertices
(
    (-415.5 -415.5 0)
    (1118 -415.5 0)
    (1118  815.5 0)
    (-415.5  815.5 0)
    (-415.5 -415.5 600)
    (1118 -415.5 600)
    (1118  815.5 600)
    (-415.5  815.5 600)
);

blocks
(
    hex (0 1 2 3 4 5 6 7) (30 30 30) simpleGrading (1 1 1)
);

boundary
(
    front
    {
        type symmetryPlane;
        faces
        (
            (3 7 6 2)
        );
    }
    back
    {
        type symmetryPlane;
        faces
        (
            (1 5 4 0)
        );
    }
    inlet
    {
        type patch;
        faces
        (
            (0 4 7 3)
        );
    }
    outlet
    {
        type patch;
        faces
        (
            (2 6 5 1)
        );
    }
    lowerWall
    {
        type wall;
        faces
        (
            (0 3 2 1)
        );
    }
    upperWall
    {
        type symmetryPlane;
        faces
        (
            (4 5 6 7)
        );
    }
);

// ************************************************************************* //
