FoamFile
{
    version 2.0;
    format ascii;
    class dictionary;
    object surfaceFeaturesDict;
}

surfaces
(
    "Bl11.stl"
);

includedAngle 150;
